<?xml version="1.0" encoding="UTF-8"?>

<!-- generated on 2025-09-19 15:44:28 by Eclipse SUMO netconvert Version 1.24.0
<netconvertConfiguration xmlns:xsi="http://www.w3.org/2001/XMLSchema-instance" xsi:noNamespaceSchemaLocation="http://sumo.dlr.de/xsd/netconvertConfiguration.xsd">

    <input>
        <node-files value="bhubaneswar.nod.xml"/>
        <edge-files value="bhubaneswar.edg.xml"/>
    </input>

    <output>
        <output-file value="bhubaneswar.net.xml"/>
    </output>

    <processing>
        <lefthand value="true"/>
    </processing>

</netconvertConfiguration>
-->

<net version="1.20" junctionCornerDetail="5" lefthand="true" limitTurnSpeed="5.50" xmlns:xsi="http://www.w3.org/2001/XMLSchema-instance" xsi:noNamespaceSchemaLocation="http://sumo.dlr.de/xsd/net_file.xsd">

    <location netOffset="500.00,500.00" convBoundary="0.00,-0.00,1000.00,1000.00" origBoundary="-500.00,-500.00,500.00,500.00" projParameter="!"/>

    <edge id=":C_0" function="internal">
        <lane id=":C_0_0" index="0" speed="6.51" length="9.03" shape="495.20,489.60 494.85,492.05 493.80,493.80 492.05,494.85 489.60,495.20"/>
    </edge>
    <edge id=":C_1" function="internal">
        <lane id=":C_1_0" index="0" speed="13.89" length="20.80" shape="495.20,489.60 495.20,510.40"/>
        <lane id=":C_1_1" index="1" speed="13.89" length="20.80" shape="498.40,489.60 498.40,510.40"/>
    </edge>
    <edge id=":C_3" function="internal">
        <lane id=":C_3_0" index="0" speed="9.26" length="5.01" shape="498.40,489.60 499.11,494.56"/>
    </edge>
    <edge id=":C_4" function="internal">
        <lane id=":C_4_0" index="0" speed="3.65" length="1.44" shape="498.40,489.60 499.20,490.80"/>
    </edge>
    <edge id=":C_20" function="internal">
        <lane id=":C_20_0" index="0" speed="9.26" length="14.34" shape="499.11,494.56 499.15,494.85 501.40,498.60 505.15,500.85 510.40,501.60"/>
    </edge>
    <edge id=":C_21" function="internal">
        <lane id=":C_21_0" index="0" speed="3.65" length="3.23" shape="499.20,490.80 500.00,491.20 500.80,490.80 501.60,489.60"/>
    </edge>
    <edge id=":C_5" function="internal">
        <lane id=":C_5_0" index="0" speed="6.51" length="9.03" shape="510.40,495.20 507.95,494.85 506.20,493.80 505.15,492.05 504.80,489.60"/>
    </edge>
    <edge id=":C_6" function="internal">
        <lane id=":C_6_0" index="0" speed="13.89" length="20.80" shape="510.40,495.20 489.60,495.20"/>
        <lane id=":C_6_1" index="1" speed="13.89" length="20.80" shape="510.40,498.40 489.60,498.40"/>
    </edge>
    <edge id=":C_8" function="internal">
        <lane id=":C_8_0" index="0" speed="9.26" length="5.01" shape="510.40,498.40 505.44,499.11"/>
    </edge>
    <edge id=":C_9" function="internal">
        <lane id=":C_9_0" index="0" speed="3.65" length="1.44" shape="510.40,498.40 509.20,499.20"/>
    </edge>
    <edge id=":C_22" function="internal">
        <lane id=":C_22_0" index="0" speed="9.26" length="14.34" shape="505.44,499.11 505.15,499.15 501.40,501.40 499.15,505.15 498.40,510.40"/>
    </edge>
    <edge id=":C_23" function="internal">
        <lane id=":C_23_0" index="0" speed="3.65" length="3.23" shape="509.20,499.20 508.80,500.00 509.20,500.80 510.40,501.60"/>
    </edge>
    <edge id=":C_10" function="internal">
        <lane id=":C_10_0" index="0" speed="6.51" length="9.03" shape="504.80,510.40 505.15,507.95 506.20,506.20 507.95,505.15 510.40,504.80"/>
    </edge>
    <edge id=":C_11" function="internal">
        <lane id=":C_11_0" index="0" speed="13.89" length="20.80" shape="504.80,510.40 504.80,489.60"/>
        <lane id=":C_11_1" index="1" speed="13.89" length="20.80" shape="501.60,510.40 501.60,489.60"/>
    </edge>
    <edge id=":C_13" function="internal">
        <lane id=":C_13_0" index="0" speed="9.26" length="5.01" shape="501.60,510.40 500.89,505.44"/>
    </edge>
    <edge id=":C_14" function="internal">
        <lane id=":C_14_0" index="0" speed="3.65" length="1.44" shape="501.60,510.40 500.80,509.20"/>
    </edge>
    <edge id=":C_24" function="internal">
        <lane id=":C_24_0" index="0" speed="9.26" length="14.34" shape="500.89,505.44 500.85,505.15 498.60,501.40 494.85,499.15 489.60,498.40"/>
    </edge>
    <edge id=":C_25" function="internal">
        <lane id=":C_25_0" index="0" speed="3.65" length="3.23" shape="500.80,509.20 500.00,508.80 499.20,509.20 498.40,510.40"/>
    </edge>
    <edge id=":C_15" function="internal">
        <lane id=":C_15_0" index="0" speed="6.51" length="9.03" shape="489.60,504.80 492.05,505.15 493.80,506.20 494.85,507.95 495.20,510.40"/>
    </edge>
    <edge id=":C_16" function="internal">
        <lane id=":C_16_0" index="0" speed="13.89" length="20.80" shape="489.60,504.80 510.40,504.80"/>
        <lane id=":C_16_1" index="1" speed="13.89" length="20.80" shape="489.60,501.60 510.40,501.60"/>
    </edge>
    <edge id=":C_18" function="internal">
        <lane id=":C_18_0" index="0" speed="9.26" length="5.01" shape="489.60,501.60 494.56,500.89"/>
    </edge>
    <edge id=":C_19" function="internal">
        <lane id=":C_19_0" index="0" speed="3.65" length="1.44" shape="489.60,501.60 490.80,500.80"/>
    </edge>
    <edge id=":C_26" function="internal">
        <lane id=":C_26_0" index="0" speed="9.26" length="14.34" shape="494.56,500.89 494.85,500.85 498.60,498.60 500.85,494.85 501.60,489.60"/>
    </edge>
    <edge id=":C_27" function="internal">
        <lane id=":C_27_0" index="0" speed="3.65" length="3.23" shape="490.80,500.80 491.20,500.00 490.80,499.20 489.60,498.40"/>
    </edge>
    <edge id=":E_0" function="internal">
        <lane id=":E_0_0" index="0" speed="3.65" length="4.67" shape="1000.00,501.60 1001.20,500.80 1001.60,500.00 1001.20,499.20 1000.00,498.40"/>
    </edge>
    <edge id=":N_0" function="internal">
        <lane id=":N_0_0" index="0" speed="3.65" length="4.67" shape="498.40,1000.00 499.20,1001.20 500.00,1001.60 500.80,1001.20 501.60,1000.00"/>
    </edge>
    <edge id=":S_0" function="internal">
        <lane id=":S_0_0" index="0" speed="3.65" length="4.67" shape="501.60,-0.00 500.80,-1.20 500.00,-1.60 499.20,-1.20 498.40,-0.00"/>
    </edge>
    <edge id=":W_0" function="internal">
        <lane id=":W_0_0" index="0" speed="3.65" length="4.67" shape="0.00,498.40 -1.20,499.20 -1.60,500.00 -1.20,500.80 0.00,501.60"/>
    </edge>

    <edge id="C_to_E" from="C" to="E" priority="-1">
        <lane id="C_to_E_0" index="0" speed="13.89" length="489.60" shape="510.40,504.80 1000.00,504.80"/>
        <lane id="C_to_E_1" index="1" speed="13.89" length="489.60" shape="510.40,501.60 1000.00,501.60"/>
    </edge>
    <edge id="C_to_N" from="C" to="N" priority="-1">
        <lane id="C_to_N_0" index="0" speed="13.89" length="489.60" shape="495.20,510.40 495.20,1000.00"/>
        <lane id="C_to_N_1" index="1" speed="13.89" length="489.60" shape="498.40,510.40 498.40,1000.00"/>
    </edge>
    <edge id="C_to_S" from="C" to="S" priority="-1">
        <lane id="C_to_S_0" index="0" speed="13.89" length="489.60" shape="504.80,489.60 504.80,-0.00"/>
        <lane id="C_to_S_1" index="1" speed="13.89" length="489.60" shape="501.60,489.60 501.60,-0.00"/>
    </edge>
    <edge id="C_to_W" from="C" to="W" priority="-1">
        <lane id="C_to_W_0" index="0" speed="13.89" length="489.60" shape="489.60,495.20 0.00,495.20"/>
        <lane id="C_to_W_1" index="1" speed="13.89" length="489.60" shape="489.60,498.40 0.00,498.40"/>
    </edge>
    <edge id="E_to_C" from="E" to="C" priority="-1">
        <lane id="E_to_C_0" index="0" speed="13.89" length="489.60" shape="1000.00,495.20 510.40,495.20"/>
        <lane id="E_to_C_1" index="1" speed="13.89" length="489.60" shape="1000.00,498.40 510.40,498.40"/>
    </edge>
    <edge id="N_to_C" from="N" to="C" priority="-1">
        <lane id="N_to_C_0" index="0" speed="13.89" length="489.60" shape="504.80,1000.00 504.80,510.40"/>
        <lane id="N_to_C_1" index="1" speed="13.89" length="489.60" shape="501.60,1000.00 501.60,510.40"/>
    </edge>
    <edge id="S_to_C" from="S" to="C" priority="-1">
        <lane id="S_to_C_0" index="0" speed="13.89" length="489.60" shape="495.20,-0.00 495.20,489.60"/>
        <lane id="S_to_C_1" index="1" speed="13.89" length="489.60" shape="498.40,-0.00 498.40,489.60"/>
    </edge>
    <edge id="W_to_C" from="W" to="C" priority="-1">
        <lane id="W_to_C_0" index="0" speed="13.89" length="489.60" shape="0.00,504.80 489.60,504.80"/>
        <lane id="W_to_C_1" index="1" speed="13.89" length="489.60" shape="0.00,501.60 489.60,501.60"/>
    </edge>

    <tlLogic id="C" type="static" programID="0" offset="0">
        <phase duration="42" state="GGGggrrrrrGGGggrrrrr"/>
        <phase duration="3"  state="yyyyyrrrrryyyyyrrrrr"/>
        <phase duration="42" state="rrrrrGGGggrrrrrGGGgg"/>
        <phase duration="3"  state="rrrrryyyyyrrrrryyyyy"/>
    </tlLogic>

    <junction id="C" type="traffic_light" x="500.00" y="500.00" incLanes="S_to_C_0 S_to_C_1 E_to_C_0 E_to_C_1 N_to_C_0 N_to_C_1 W_to_C_0 W_to_C_1" intLanes=":C_0_0 :C_1_0 :C_1_1 :C_20_0 :C_21_0 :C_5_0 :C_6_0 :C_6_1 :C_22_0 :C_23_0 :C_10_0 :C_11_0 :C_11_1 :C_24_0 :C_25_0 :C_15_0 :C_16_0 :C_16_1 :C_26_0 :C_27_0" shape="493.60,489.60 506.40,489.60 506.84,491.82 507.40,492.60 508.18,493.16 509.18,493.49 510.40,493.60 510.40,506.40 508.18,506.84 507.40,507.40 506.84,508.18 506.51,509.18 506.40,510.40 493.60,510.40 493.16,508.18 492.60,507.40 491.82,506.84 490.82,506.51 489.60,506.40 489.60,493.60 491.82,493.16 492.60,492.60 493.16,491.82 493.49,490.82">
        <request index="0"  response="00000000000000000000" foes="00000000000011000000" cont="0"/>
        <request index="1"  response="01000000000100000000" foes="01111110000111000000" cont="0"/>
        <request index="2"  response="01000000000100000000" foes="01111110000111000000" cont="0"/>
        <request index="3"  response="01000001100100000000" foes="01110001101111000000" cont="1"/>
        <request index="4"  response="01000001100000000000" foes="01000001100000000000" cont="1"/>
        <request index="5"  response="00000001100000000000" foes="00000001100000000000" cont="0"/>
        <request index="6"  response="00000011100000001111" foes="11000011100000001111" cont="0"/>
        <request index="7"  response="00000011100000001111" foes="11000011100000001111" cont="0"/>
        <request index="8"  response="00110011100000001110" foes="00110111100000001110" cont="1"/>
        <request index="9"  response="00110000000000001000" foes="00110000000000001000" cont="1"/>
        <request index="10" response="00000000000000000000" foes="00110000000000000000" cont="0"/>
        <request index="11" response="01000000000100000000" foes="01110000000111111000" cont="0"/>
        <request index="12" response="01000000000100000000" foes="01110000000111111000" cont="0"/>
        <request index="13" response="01000000000100000110" foes="11110000000111000110" cont="1"/>
        <request index="14" response="00000000000100000110" foes="00000000000100000110" cont="1"/>
        <request index="15" response="00000000000000000110" foes="00000000000000000110" cont="0"/>
        <request index="16" response="00000011110000001110" foes="00000011111100001110" cont="0"/>
        <request index="17" response="00000011110000001110" foes="00000011111100001110" cont="0"/>
        <request index="18" response="00000011100011001110" foes="00000011100011011110" cont="1"/>
        <request index="19" response="00000010000011000000" foes="00000010000011000000" cont="1"/>
    </junction>
    <junction id="E" type="priority" x="1000.00" y="500.00" incLanes="C_to_E_0 C_to_E_1" intLanes=":E_0_0" shape="1000.00,500.00 1000.00,506.40 1000.00,500.00">
        <request index="0" response="0" foes="0" cont="0"/>
    </junction>
    <junction id="N" type="priority" x="500.00" y="1000.00" incLanes="C_to_N_0 C_to_N_1" intLanes=":N_0_0" shape="500.00,1000.00 493.60,1000.00 500.00,1000.00">
        <request index="0" response="0" foes="0" cont="0"/>
    </junction>
    <junction id="S" type="priority" x="500.00" y="-0.00" incLanes="C_to_S_0 C_to_S_1" intLanes=":S_0_0" shape="500.00,-0.00 506.40,-0.00 500.00,-0.00">
        <request index="0" response="0" foes="0" cont="0"/>
    </junction>
    <junction id="W" type="priority" x="0.00" y="500.00" incLanes="C_to_W_0 C_to_W_1" intLanes=":W_0_0" shape="0.00,500.00 0.00,493.60 0.00,500.00">
        <request index="0" response="0" foes="0" cont="0"/>
    </junction>

    <junction id=":C_20_0" type="internal" x="499.11" y="494.56" incLanes=":C_3_0 N_to_C_0 N_to_C_1" intLanes=":C_6_0 :C_6_1 :C_8_0 :C_9_0 :C_10_0 :C_11_0 :C_11_1 :C_16_0 :C_16_1 :C_18_0"/>
    <junction id=":C_21_0" type="internal" x="499.20" y="490.80" incLanes=":C_4_0 E_to_C_0 N_to_C_0 N_to_C_1 W_to_C_1" intLanes=":C_5_0 :C_11_0 :C_11_1 :C_18_0"/>
    <junction id=":C_22_0" type="internal" x="505.44" y="499.11" incLanes=":C_8_0 W_to_C_0 W_to_C_1" intLanes=":C_1_0 :C_1_1 :C_3_0 :C_11_0 :C_11_1 :C_13_0 :C_14_0 :C_15_0 :C_16_0 :C_16_1"/>
    <junction id=":C_23_0" type="internal" x="509.20" y="499.20" incLanes=":C_9_0 N_to_C_0 S_to_C_1 W_to_C_0 W_to_C_1" intLanes=":C_3_0 :C_10_0 :C_16_0 :C_16_1"/>
    <junction id=":C_24_0" type="internal" x="500.89" y="505.44" incLanes=":C_13_0 S_to_C_0 S_to_C_1" intLanes=":C_0_0 :C_1_0 :C_1_1 :C_6_0 :C_6_1 :C_8_0 :C_16_0 :C_16_1 :C_18_0 :C_19_0"/>
    <junction id=":C_25_0" type="internal" x="500.80" y="509.20" incLanes=":C_14_0 E_to_C_1 S_to_C_0 S_to_C_1 W_to_C_0" intLanes=":C_1_0 :C_1_1 :C_8_0 :C_15_0"/>
    <junction id=":C_26_0" type="internal" x="494.56" y="500.89" incLanes=":C_18_0 E_to_C_0 E_to_C_1" intLanes=":C_1_0 :C_1_1 :C_3_0 :C_4_0 :C_5_0 :C_6_0 :C_6_1 :C_11_0 :C_11_1 :C_13_0"/>
    <junction id=":C_27_0" type="internal" x="490.80" y="500.80" incLanes=":C_19_0 E_to_C_0 E_to_C_1 N_to_C_1 S_to_C_0" intLanes=":C_0_0 :C_6_0 :C_6_1 :C_13_0"/>

    <connection from="C_to_E" to="E_to_C" fromLane="1" toLane="1" via=":E_0_0" dir="T" state="M"/>
    <connection from="C_to_N" to="N_to_C" fromLane="1" toLane="1" via=":N_0_0" dir="T" state="M"/>
    <connection from="C_to_S" to="S_to_C" fromLane="1" toLane="1" via=":S_0_0" dir="T" state="M"/>
    <connection from="C_to_W" to="W_to_C" fromLane="1" toLane="1" via=":W_0_0" dir="T" state="M"/>
    <connection from="E_to_C" to="C_to_S" fromLane="0" toLane="0" via=":C_5_0" tl="C" linkIndex="5" dir="l" state="o"/>
    <connection from="E_to_C" to="C_to_W" fromLane="0" toLane="0" via=":C_6_0" tl="C" linkIndex="6" dir="s" state="o"/>
    <connection from="E_to_C" to="C_to_W" fromLane="1" toLane="1" via=":C_6_1" tl="C" linkIndex="7" dir="s" state="o"/>
    <connection from="E_to_C" to="C_to_N" fromLane="1" toLane="1" via=":C_8_0" tl="C" linkIndex="8" dir="r" state="o"/>
    <connection from="E_to_C" to="C_to_E" fromLane="1" toLane="1" via=":C_9_0" tl="C" linkIndex="9" dir="T" state="o"/>
    <connection from="N_to_C" to="C_to_E" fromLane="0" toLane="0" via=":C_10_0" tl="C" linkIndex="10" dir="l" state="O"/>
    <connection from="N_to_C" to="C_to_S" fromLane="0" toLane="0" via=":C_11_0" tl="C" linkIndex="11" dir="s" state="O"/>
    <connection from="N_to_C" to="C_to_S" fromLane="1" toLane="1" via=":C_11_1" tl="C" linkIndex="12" dir="s" state="O"/>
    <connection from="N_to_C" to="C_to_W" fromLane="1" toLane="1" via=":C_13_0" tl="C" linkIndex="13" dir="r" state="o"/>
    <connection from="N_to_C" to="C_to_N" fromLane="1" toLane="1" via=":C_14_0" tl="C" linkIndex="14" dir="T" state="o"/>
    <connection from="S_to_C" to="C_to_W" fromLane="0" toLane="0" via=":C_0_0" tl="C" linkIndex="0" dir="l" state="O"/>
    <connection from="S_to_C" to="C_to_N" fromLane="0" toLane="0" via=":C_1_0" tl="C" linkIndex="1" dir="s" state="O"/>
    <connection from="S_to_C" to="C_to_N" fromLane="1" toLane="1" via=":C_1_1" tl="C" linkIndex="2" dir="s" state="O"/>
    <connection from="S_to_C" to="C_to_E" fromLane="1" toLane="1" via=":C_3_0" tl="C" linkIndex="3" dir="r" state="o"/>
    <connection from="S_to_C" to="C_to_S" fromLane="1" toLane="1" via=":C_4_0" tl="C" linkIndex="4" dir="T" state="o"/>
    <connection from="W_to_C" to="C_to_N" fromLane="0" toLane="0" via=":C_15_0" tl="C" linkIndex="15" dir="l" state="o"/>
    <connection from="W_to_C" to="C_to_E" fromLane="0" toLane="0" via=":C_16_0" tl="C" linkIndex="16" dir="s" state="o"/>
    <connection from="W_to_C" to="C_to_E" fromLane="1" toLane="1" via=":C_16_1" tl="C" linkIndex="17" dir="s" state="o"/>
    <connection from="W_to_C" to="C_to_S" fromLane="1" toLane="1" via=":C_18_0" tl="C" linkIndex="18" dir="r" state="o"/>
    <connection from="W_to_C" to="C_to_W" fromLane="1" toLane="1" via=":C_19_0" tl="C" linkIndex="19" dir="T" state="o"/>

    <connection from=":C_0" to="C_to_W" fromLane="0" toLane="0" dir="l" state="M"/>
    <connection from=":C_1" to="C_to_N" fromLane="0" toLane="0" dir="s" state="M"/>
    <connection from=":C_1" to="C_to_N" fromLane="1" toLane="1" dir="s" state="M"/>
    <connection from=":C_3" to="C_to_E" fromLane="0" toLane="1" via=":C_20_0" dir="r" state="m"/>
    <connection from=":C_20" to="C_to_E" fromLane="0" toLane="1" dir="r" state="M"/>
    <connection from=":C_4" to="C_to_S" fromLane="0" toLane="1" via=":C_21_0" dir="T" state="m"/>
    <connection from=":C_21" to="C_to_S" fromLane="0" toLane="1" dir="T" state="M"/>
    <connection from=":C_5" to="C_to_S" fromLane="0" toLane="0" dir="l" state="M"/>
    <connection from=":C_6" to="C_to_W" fromLane="0" toLane="0" dir="s" state="M"/>
    <connection from=":C_6" to="C_to_W" fromLane="1" toLane="1" dir="s" state="M"/>
    <connection from=":C_8" to="C_to_N" fromLane="0" toLane="1" via=":C_22_0" dir="r" state="m"/>
    <connection from=":C_22" to="C_to_N" fromLane="0" toLane="1" dir="r" state="M"/>
    <connection from=":C_9" to="C_to_E" fromLane="0" toLane="1" via=":C_23_0" dir="T" state="m"/>
    <connection from=":C_23" to="C_to_E" fromLane="0" toLane="1" dir="T" state="M"/>
    <connection from=":C_10" to="C_to_E" fromLane="0" toLane="0" dir="l" state="M"/>
    <connection from=":C_11" to="C_to_S" fromLane="0" toLane="0" dir="s" state="M"/>
    <connection from=":C_11" to="C_to_S" fromLane="1" toLane="1" dir="s" state="M"/>
    <connection from=":C_13" to="C_to_W" fromLane="0" toLane="1" via=":C_24_0" dir="r" state="m"/>
    <connection from=":C_24" to="C_to_W" fromLane="0" toLane="1" dir="r" state="M"/>
    <connection from=":C_14" to="C_to_N" fromLane="0" toLane="1" via=":C_25_0" dir="T" state="m"/>
    <connection from=":C_25" to="C_to_N" fromLane="0" toLane="1" dir="T" state="M"/>
    <connection from=":C_15" to="C_to_N" fromLane="0" toLane="0" dir="l" state="M"/>
    <connection from=":C_16" to="C_to_E" fromLane="0" toLane="0" dir="s" state="M"/>
    <connection from=":C_16" to="C_to_E" fromLane="1" toLane="1" dir="s" state="M"/>
    <connection from=":C_18" to="C_to_S" fromLane="0" toLane="1" via=":C_26_0" dir="r" state="m"/>
    <connection from=":C_26" to="C_to_S" fromLane="0" toLane="1" dir="r" state="M"/>
    <connection from=":C_19" to="C_to_W" fromLane="0" toLane="1" via=":C_27_0" dir="T" state="m"/>
    <connection from=":C_27" to="C_to_W" fromLane="0" toLane="1" dir="T" state="M"/>
    <connection from=":E_0" to="E_to_C" fromLane="0" toLane="1" dir="T" state="M"/>
    <connection from=":N_0" to="N_to_C" fromLane="0" toLane="1" dir="T" state="M"/>
    <connection from=":S_0" to="S_to_C" fromLane="0" toLane="1" dir="T" state="M"/>
    <connection from=":W_0" to="W_to_C" fromLane="0" toLane="1" dir="T" state="M"/>

</net>
