<configuration>
    <input>
        <net-file value="bhubaneswar.net.xml"/>
        <route-files value="bhubaneswar.rou.xml"/>
        <additional-files value="bhubaneswar.add.xml"/>
    </input>
    <time>
        <begin value="0"/>
        <end value="3600"/>
    </time>
</configuration>