<edges>
    <edge id="N_to_C" from="N" to="C" numLanes="2" speed="13.89" />
    <edge id="S_to_C" from="S" to="C" numLanes="2" speed="13.89" />
    <edge id="E_to_C" from="E" to="C" numLanes="2" speed="13.89" />
    <edge id="W_to_C" from="W" to="C" numLanes="2" speed="13.89" />

    <edge id="C_to_N" from="C" to="N" numLanes="2" speed="13.89" />
    <edge id="C_to_S" from="C" to="S" numLanes="2" speed="13.89" />
    <edge id="C_to_E" from="C" to="E" numLanes="2" speed="13.89" />
    <edge id="C_to_W" from="C" to="W" numLanes="2" speed="13.89" />
</edges>